Version 4
SHEET 1 880 680
WIRE 448 16 80 16
WIRE 656 16 448 16
WIRE 656 48 656 16
WIRE 80 112 80 16
WIRE 448 128 448 16
WIRE 656 208 656 128
WIRE 80 352 80 192
WIRE 320 352 80 352
WIRE 448 352 448 208
WIRE 448 352 320 352
WIRE 656 352 656 272
WIRE 656 352 448 352
WIRE 320 400 320 352
FLAG 320 400 0
SYMBOL voltage 80 96 R0
WINDOW 123 0 0 Left 0
WINDOW 39 0 0 Left 0
SYMATTR InstName V1
SYMATTR Value SINE(0 8.485 19.894)
SYMBOL res 640 32 R0
SYMATTR InstName R1
SYMATTR Value 30
SYMBOL cap 640 208 R0
WINDOW 3 33 56 Left 2
SYMATTR Value 71.454µ
SYMATTR InstName C1
SYMBOL ind 432 112 R0
SYMATTR InstName L1
SYMATTR Value 23.094m
SYMATTR SpiceLine Rser=5
TEXT 88 328 Left 2 !.tran 0 90m 0 0.01m
