Version 4
SHEET 1 880 680
WIRE 448 16 80 16
WIRE 80 112 80 16
WIRE 448 160 448 16
WIRE 80 352 80 192
WIRE 256 352 80 352
WIRE 448 352 448 224
WIRE 448 352 256 352
WIRE 256 400 256 352
FLAG 256 400 0
SYMBOL voltage 80 96 R0
WINDOW 123 0 0 Left 0
WINDOW 39 0 0 Left 0
SYMATTR InstName V1
SYMATTR Value SINE(0 8.485 19.894)
SYMBOL cap 432 160 R0
SYMATTR InstName C1
SYMATTR Value 71.454µ
TEXT 88 328 Left 2 !.tran 0 24m 0 0.01m
