Version 4
SHEET 1 936 680
WIRE 192 48 112 48
WIRE 256 96 192 48
WIRE 112 176 112 128
WIRE 192 240 256 176
WIRE 192 240 112 240
WIRE 192 272 192 240
FLAG 192 272 0
SYMBOL res 96 32 R0
SYMATTR InstName R1
SYMATTR Value 40
SYMBOL voltage 256 80 R0
WINDOW 123 0 0 Left 0
WINDOW 39 0 0 Left 0
SYMATTR InstName V1
SYMATTR Value PULSE(-2 2 0.1m 0.001m 0.001m 60m 120m)
SYMBOL cap 96 176 R0
SYMATTR InstName C2
SYMATTR Value 300µ
TEXT 94 252 Left 2 !.tran 0 120m 0 0.1m
