Version 4
SHEET 1 936 680
WIRE 256 0 112 0
WIRE 256 96 256 0
WIRE 112 128 112 80
WIRE 112 240 112 208
WIRE 192 240 256 176
WIRE 192 240 112 240
WIRE 192 272 192 240
FLAG 192 272 0
SYMBOL res 96 -16 R0
SYMATTR InstName R1
SYMATTR Value 40
SYMBOL voltage 256 80 R0
WINDOW 123 0 0 Left 0
WINDOW 39 0 0 Left 0
SYMATTR InstName V1
SYMATTR Value PULSE(-2 2 0.1m 0.001m 0.001m 60m 120m)
SYMBOL ind 96 112 R0
SYMATTR InstName L1
SYMATTR Value 0.48
TEXT 94 252 Left 2 !.tran 0 120m 0 0.1m
